       2
 i =        1, E =      -919.7965920115
 Cl         3.2500000000        4.0000000011        4.0000000021
 Cl         4.7500000000        3.9999999989        3.9999999979
       2
 i =        2, E =      -919.8522952514
 Cl         3.2268690874        4.0000000068        4.0000000129
 Cl         4.7731309126        3.9999999932        3.9999999871
       2
 i =        3, E =      -919.9736541805
 Cl         3.1391595928        4.0000001332        4.0000002536
 Cl         4.8608404072        3.9999998668        3.9999997464
       2
 i =        4, E =      -920.0038651194
 Cl         3.0864285558        4.0000004736        4.0000009016
 Cl         4.9135714442        3.9999995264        3.9999990983
       2
 i =        5, E =      -920.0153310969
 Cl         3.0398386594        4.0000011456        4.0000021810
 Cl         4.9601613406        3.9999988544        3.9999978190
       2
 i =        6, E =      -920.0174134416
 Cl         3.0145595096        4.0000017271        4.0000032911
 Cl         4.9854404904        3.9999982729        3.9999967088
       2
 i =        7, E =      -920.0176048604
 Cl         3.0051343663        4.0000020244        4.0000038578
 Cl         4.9948656337        3.9999979756        3.9999961422
       2
 i =        8, E =      -920.0176090151
 Cl         3.0035747143        4.0000021211        4.0000040423
 Cl         4.9964252857        3.9999978788        3.9999959577
       2
 i =        9, E =      -920.0176090249
 Cl         3.0034974342        4.0000021725        4.0000041401
 Cl         4.9965025658        3.9999978275        3.9999958599
       2
 i =       10, E =      -920.0176090245
 Cl         3.0034974342        4.0000021725        4.0000041401
 Cl         4.9965025658        3.9999978275        3.9999958599
