       3
 i =        1, E =     -6594.1848436236
  H        11.0933361298        9.9999998628       10.5624856815
  H         8.9066638481        9.9999999079       10.5624858404
 Te         9.9999999419       10.0000002421        9.3982482306
       3
 i =        2, E =     -6594.1850655568
  H        11.1114020703        9.9999998586       10.5598606044
  H         8.8885979161        9.9999999045       10.5598607464
 Te         9.9999999334       10.0000002497        9.4034988314
       3
 i =        3, E =     -6594.1851564153
  H        11.1325695860        9.9999998546       10.5559041618
  H         8.8674304087        9.9999999014       10.5559042997
 Te         9.9999999251       10.0000002571        9.4114121083
       3
 i =        4, E =     -6594.1851569182
  H        11.1332257887        9.9999998549       10.5555477842
  H         8.8667742050        9.9999999017       10.5555479220
 Te         9.9999999260       10.0000002566        9.4121252570
       3
 i =        5, E =     -6594.1851568869
  H        11.1332257887        9.9999998549       10.5555477842
  H         8.8667742050        9.9999999017       10.5555479220
 Te         9.9999999260       10.0000002566        9.4121252570
