       4
 i =       41, E =       -17.0393222527
  S         5.0764699609        4.7916714754        3.6981496875
  C         3.9847468513        3.6366362784        3.9810021541
  H         3.3808128722        3.1968141985        3.1782412392
  H         3.8004562762        3.2426452093        4.9880190115
