     184
 i =       78, E =     -1100.5905222590
 Bi        28.1551469726        2.7688979837        1.6195709922
 Bi         2.8490484832       16.5811769152        2.2301959035
 Bi        12.6551428646        2.7675692299        2.2388271852
 Bi        18.3478690017       16.5726118774        1.6217761765
  O        26.5297530131        0.8648018250        1.7909481758
  O         4.4729181937       14.6764336492        2.0671951250
  O        11.0297958701        0.8636340107        2.0701184696
  O        19.9743190308       14.6752574407        1.7853424541
  O        26.4652198105        2.2429678535        3.9621449768
  O         4.5349652727       16.0564313527       -0.1058296130
  O        10.9655555481        2.2429564979       -0.1020876575
  O        20.0362962489       16.0549835144        3.9587960324
  O        15.1574229066        2.3003789120        2.1658028709
  O        15.8526641081       16.0751978118        1.7075735653
  O        30.6575171941        2.2996489905        1.6966215317
  O         0.3463710534       16.1087904294        2.1527229277
  O        13.9136397595        1.6598976166       -0.0244736717
  O        17.0968301280       15.4298394786        3.8988841935
  O        29.4152340779        1.6586142306        3.8861065840
  O         1.5909051285       15.4698515838       -0.0373747036
  O        18.0855092276       18.4134159547        0.1060885839
  O        12.9125135937        4.6046475973        3.7539344530
  O         2.5880946637       18.4168671017        3.7507267848
  O        28.4136296144        4.6060728672        0.1035436901
  O        19.4022243217       18.8160524572        1.8536033866
  O        11.5962266683        5.0042471718        2.0056097362
  O         3.9033085214       18.8193891016        2.0023676162
  O        27.0988182326        5.0080368764        1.8521476712
  N        20.5968575112       26.8270462965        1.7346843447
  N        10.4027501765       13.0137681683        2.1286782230
  N         5.0970939130       26.8260147561        2.1278980356
  N        25.9096950668       13.0161785971        1.7246683165
  N        19.0976979095       24.9968715723        1.8292677317
  N        11.8938982783       11.1766377907        2.0353788843
  N         3.5967825003       24.9967892300        2.0301368055
  N        27.4085737625       11.1855328076        1.8232605866
  N        20.7110641442       25.2799040661        3.5283665809
  N        10.2831535002       11.4666733684        0.3350573617
  N         5.2119736319       25.2804510450        0.3330002769
  N        25.7935421603       11.4713538314        3.5201848887
  C        21.2137153062       26.3063934199        2.7890830554
  C         9.7844250766       12.4951458457        1.0741632881
  C         5.7148239759       26.3056297576        1.0740146772
  C        25.2914867141       12.4967024928        2.7787916945
  C        22.4688718144       26.9151334331        3.2136213002
  C         8.5313145419       13.1064882918        0.6481829971
  C         6.9714244540       26.9124384614        0.6510966414
  C        24.0346368434       13.1040422020        3.2018645157
  C        23.0908967132       26.4598407349        4.3257224473
  C         7.9098520284       12.6504242076       -0.4640192304
  C         7.5932997032       26.4566655721       -0.4609466358
  C        23.4130936799       12.6478994446        4.3138814238
  C        24.1262958744       27.1885925249        1.0496152363
  C         6.8747572112       13.3787146104        2.8113693515
  C         8.6299088071       27.1841171178        2.8158000109
  C        22.3757035700       13.3739856414        1.0375857465
  C        24.6997135153        0.6458723866        0.3145885300
  C         6.3008714756       14.4589766659        3.5458012985
  C         9.2028415831        0.6419822669        3.5496664050
  C        21.8009567232       14.4546233478        0.3040536266
  C        24.0827192977        1.1015203977        3.1154411791
  C         6.9178058491       14.9160998506        0.7446229876
  C         8.5859778485        1.0980846132        0.7488952566
  C        22.4179026344       14.9113809159        3.1050368540
  C        23.0516538953        0.3713707720        2.4767980061
  C         7.9488287896       14.1865355552        1.3838951740
  C         7.5556295714        0.3676368225        1.3885384672
  C        23.4489804884       14.1819836653        2.4648031422
  C        25.9474298133        1.2750415835        0.7418482328
  C         5.0536523040       15.0875606459        3.1167064790
  C        10.4487292429        1.2733619440        3.1200716709
  C        20.5549793179       15.0853414852        0.7348241641
  C        19.4459178519       26.2201050655        1.3834481938
  C        11.5501717183       12.4007652970        2.4820507342
  C         3.9455747055       26.2190981321        2.4781368099
  C        27.0606861755       12.4077875725        1.3744046738
  C        18.3440489251       27.0082020043        0.7760875104
  C        12.6561084302       13.1813271636        3.0915095368
  C         2.8434497139       27.0059764491        3.0866784852
  C        28.1636000126       13.1920580129        0.7639373782
  C        18.4987634394        0.2238209689       -0.2717281398
  C        12.5051470424       14.0204060213        4.1394067814
  C         2.9979157938        0.2206773268        4.1351201483
  C        28.0094250034       14.0302204095       -0.2843486851
  C        17.3834078688        0.7886891575       -0.9228173789
  C        13.6235461313       14.5757218681        4.7937254221
  C         1.8825124437        0.7844140708        4.7875464361
  C        29.1252655487       14.5917877517       -0.9378564386
  C        16.1445061140        0.7849921623       -0.2337129398
  C        14.8630964911       14.5648122194        4.1058070036
  C         0.6437051788        0.7820180778        4.0979728176
  C        30.3639272325       14.5893410902       -0.2482021179
  C        15.9930086851       27.6169036543        0.8558563603
  C        15.0114240694       13.7742742629        3.0153731870
  C        31.4926662329       27.6147519929        3.0076761390
  C        -0.4846723177       13.7981491386        0.8414891470
  C        17.0966443133       26.9804333300        1.4522189904
  C        13.9043249924       13.1452129721        2.4171543145
  C         1.5956025014       26.9780042743        2.4110944686
  C        29.4120438557       13.1619644619        1.4382014100
  C        15.0360054338        1.6183945124       -0.6906905414
  C        15.9751703701       15.3919045553        4.5645470792
  C        30.5364549327        1.6163839481        4.5539508324
  C         0.4697978743       15.4251917473       -0.7048817719
  C        19.7907814667       24.5363608949        2.8609274774
  C        11.2005011784       10.7199863891        1.0025057843
  C         4.2902993223       24.5371916238        0.9983689659
  C        26.7148522193       10.7270339988        2.8554052968
  C        19.5300387771       23.1804066062        3.3222853416
  C        11.4587937302        9.3645141623        0.5403338925
  C         4.0286330364       23.1825827120        0.5347800580
  C        26.9761303305        9.3726393497        3.3199387609
  C        18.6709222142       22.2984558942        2.5950755486
  C        12.3184594275        8.4834803961        1.2678932170
  C         3.1690120682       22.3007783567        1.2610884917
  C        27.8354588653        8.4902373798        2.5941317798
  C        18.3199370844       21.0764326081        3.2178144213
  C        12.6726720264        7.2634918060        0.6432738419
  C         2.8186421032       21.0789686203        0.6377218669
  C        28.1847364990        7.2681102842        3.2171004611
  C        18.9411832563       20.6337149877        4.3330571304
  C        12.0512852830        6.8217176780       -0.4722085301
  C         3.4410788110       20.6374262767       -0.4773728511
  C        27.5617362123        6.8265859255        4.3318292606
  C        19.7760174474       21.5233289167        1.1623755869
  C        11.2145806727        7.7097498328        2.6986120759
  C         4.2748864776       21.5275353914        2.6929057278
  C        26.7282221297        7.7171776105        1.1611951262
  C        20.1607861560       22.7237236833        4.4295473542
  C        10.8279971188        8.9090758813       -0.5672402499
  C         4.6601487776       22.7271192851       -0.5726872485
  C        26.3440487056        8.9171796921        4.4270837455
  C        18.7948377212       19.2302618752        0.8189998863
  C        12.2014310794        5.4197475022        3.0410991177
  C         3.2957751146       19.2341027223        3.0373135068
  C        27.7062474446        5.4230477431        0.8174393810
  H        11.5229373028       14.1790264975        4.5678443129
  H        13.4624795942       15.3554191828        5.5345494443
  H        15.9866401529       13.7393784905        2.5405809440
  H        14.0803261447       12.3579314573        1.6871721022
  H        13.0276851852        8.9403541135        1.9562651414
  H        13.3288294537        6.5652381455        1.1513403561
  H        10.1076016281        9.5664043261       -1.0390816274
  H         6.4901024696       15.7892369240        1.2252394873
  H         8.6041645879       14.7204914254        2.0702297643
  H         8.3419336323       11.7888776577       -0.9583288922
  H        29.5916896614       12.3753265062        2.1680224419
  H        27.0269347106       14.1832605885       -0.7140347286
  H        28.9607469636       15.3700060577       -1.6793224972
  H         0.4897704294       13.7688532638        1.3184650504
  H        21.9909343764       15.7851247758        2.6249557950
  H        23.8482157678       11.7891586914        4.8104621687
  H        24.1028805461       14.7170207719        1.7778976757
  H        25.6226055390        9.5742276027        4.8978120838
  H        28.5457686409        8.9443993652        1.9049909191
  H        28.8374923189        6.5678484058        2.7073666251
  H        21.7221012745       12.8376887305        1.7235713784
  H         6.9006710203        0.9015747017        2.0750288036
  H        17.6673982860       20.3767339335        2.7072033217
  H        20.8806566874       23.3810701419        4.9024125040
  H        26.0191351577        7.2636524117        1.8514513068
  H        17.9612049288       22.7533397654        1.9058873019
  H        22.6585558213       25.5994387779        4.8219020614
  H        24.7810779984       26.6545512722        1.7363059789
  H        16.9168268097       26.1948384468        2.1830355633
  H        15.0181856949       27.5861391291        1.3318525861
  H         6.2206705425       12.8442171136        2.1244050677
  H         5.3814747545       23.3842019506       -1.0433621391
  H        20.4849356339       21.0689333618        1.8522016572
  H         2.4586563300       22.7558945432        1.9494903535
  H         2.1658053433       20.3788597416        1.1474221761
  H         7.1589635501       25.5977120340       -0.9578922569
  H         1.4154989963       26.1917753776        1.6811052917
  H        10.5055939958        7.2533790609        2.0100946254
  H        19.4809189861        0.3735267523       -0.7036514193
  H        17.5482391661        1.5668987048       -1.6643900887
  H        24.5111483616        1.9733837036        2.6332873148
  H        22.3959643626        0.9050671831        1.7905007502
  H         3.9801671358        0.3707186141        4.5664097435
  H         2.0478184599        1.5625924244        5.5289565922
  H         9.0131225161        1.9714491175        1.2293766278
  H        30.5184627291       27.5864127812        2.5307311447
  H         4.9840003448       21.0732914837        2.0032482680
  H         9.2843944869       26.6495478403        2.1292861382
