       2
 i =        1, E =      -460.6179320758
 Cl         3.4107926116        4.0000000049        4.0000000011
  H         4.5892073876        3.9999999951        3.9999999989
       2
 i =        2, E =      -460.6240740381
 Cl         3.3857333838        4.0000000100        4.0000000022
  H         4.6142666499        3.9999999900        3.9999999978
       2
 i =        3, E =      -460.6262318050
 Cl         3.3631770201        4.0000000179        4.0000000039
  H         4.6368229334        3.9999999821        3.9999999961
       2
 i =        4, E =      -460.6263680649
 Cl         3.3565752040        4.0000000210        4.0000000046
  H         4.6434246871        3.9999999790        3.9999999954
       2
 i =        5, E =      -460.6263713110
 Cl         3.3554191721        4.0000000216        4.0000000047
  H         4.6445807619        3.9999999784        3.9999999953
       2
 i =        6, E =      -460.6263713119
 Cl         3.3554191721        4.0000000216        4.0000000047
  H         4.6445807619        3.9999999784        3.9999999953
