     184
 i =      106, E =     -1237.2952099433
 Bi        27.2625270841        2.7571176414        0.0575103429
 Bi         3.7373218161       16.5686424699        3.8008490317
 Bi        11.7610096898        2.7557644641        3.8010131300
 Bi        19.2378213148       16.5677441430        0.0561976579
  O        25.5441711364        0.9274151650        0.7472077540
  O         5.4557991558       14.7391743538        3.1113779137
  O        10.0434230290        0.9266990642        3.1117656155
  O        20.9565810147       14.7383381415        0.7467623402
  O        25.4710381837        2.0533466688        3.0534692551
  O         5.5283794203       15.8651312923        0.8051634037
  O         9.9689193345        2.0523731543        0.8054491512
  O        21.0296925161       15.8638358455        3.0527573804
  O        14.2336890132        2.0663961057        3.0764163160
  O        16.7660356060       15.8781623712        0.7807029218
  O        29.7340752962        2.0679276169        0.7820762024
  O         1.2663558452       15.8792263354        3.0770018818
  O        13.2472754710        1.4959139801        0.7665498542
  O        17.7521606607       15.3072369497        3.0907665201
  O        28.7480697349        1.4966932724        3.0920122886
  O         2.2523703456       15.3080362739        0.7670331788
  O        18.9514027836       18.5355470342       -0.8053724302
  O        12.0469889612        4.7244222457        4.6611253057
  O         3.4511185139       18.5354057790        4.6640207215
  O        27.5492658563        4.7240550548       -0.8055833728
  O        19.9697287534       19.0524712864        0.7986654682
  O        11.0283997440        5.2397354544        3.0566925748
  O         4.4694094681       19.0523858056        3.0600418291
  O        26.5309044821        5.2408314594        0.7983367970
  N        19.5598103975       26.9001185298        1.8210734798
  N        11.4393976729       13.0883002679        2.0374516276
  N         4.0589710320       26.8997663246        2.0374911233
  N        26.9408218596       13.0885891455        1.8209017511
  N        18.4473019287       25.1092982236        1.9091801153
  N        12.5508314621       11.2968888651        1.9482035403
  N         2.9457115429       25.1093600393        1.9498730301
  N        28.0540576066       11.2982185154        1.9089515653
  N        20.5082098116       25.0942029811        2.3209030079
  N        10.4896982460       11.2830655543        1.5375080907
  N         5.0068068042       25.0931698644        1.5385540935
  N        25.9928679757       11.2821320001        2.3196923046
  C        20.5470233782       26.2832607602        2.1347724601
  C        10.4517962912       12.4720799861        1.7238363291
  C         5.0459572357       26.2822904084        1.7241791469
  C        25.9538803592       12.4713457152        2.1342515409
  C        21.7287564106       26.9500570455        2.4054522119
  C         9.2704736112       13.1392170720        1.4532592311
  C         6.2277915591       26.9485272146        1.4533094254
  C        24.7720418387       13.1377667817        2.4048582991
  C        22.1268620620       26.7777268066        3.5384453785
  C         8.8722834553       12.9664134218        0.3203706514
  C         6.6259866661       26.7756825731        0.3204274491
  C        24.3737416584       12.9648230633        3.5376820563
  C        23.0826021814       27.4103556524        0.3114931698
  C         7.9168682175       13.5992868560        3.5472684150
  C         7.5816526578       27.4083032429        3.5473796115
  C        23.4180895638       13.5975186449        0.3107556586
  C        23.7538244711        0.6892341671       -0.4640370813
  C         7.2458785760       14.5014354032        4.3227947235
  C         8.2526099819        0.6874723401        4.3227290299
  C        22.7468463697       14.4997067255       -0.4646682807
  C        23.3571517916        0.8637309170        2.3155769194
  C         7.6423618341       14.6759427498        1.5432437907
  C         7.8559248055        0.8620951961        1.5431192725
  C        23.1436863467       14.6745680653        2.3150608987
  C        22.3871750624        0.2443863970        1.6385659912
  C         8.6123790742       14.0567398436        2.2201680235
  C         6.8861283678        0.2426603312        2.2201670072
  C        24.1133225076       14.0548977192        1.6379043328
  C        24.9752214215        1.2454966752       -0.1588522028
  C         6.0245391121       15.0574731644        4.0174839328
  C         9.4738316945        1.2443047915        4.0176784277
  C        21.5254222906       15.0559792721       -0.1595189495
  C        18.5132567759       26.3049072280        1.7521761431
  C        12.4856721495       12.4925183242        2.1056695014
  C         3.0122169966       26.3050012190        2.1065581374
  C        27.9875965303       12.4938323023        1.7521402526
  C        17.3730157838       27.0246311117        1.4286532326
  C        13.6262314177       13.2120908644        2.4289797358
  C         1.8725231163       27.0254619660        2.4299978523
  C        29.1274718856       13.2141991244        1.4289341980
  C        17.3542348562       -0.1632135354        0.2990704827
  C        13.6450680522       13.6478051062        3.5584403817
  C         1.8542237516       -0.1620641923        3.5594560041
  C        29.1459403118       13.6499463726        0.2994972294
  C        16.3557408278        0.3988465602       -0.3884716536
  C        14.6435335513       14.2099001949        4.2459891996
  C         0.8560765013        0.4004813119        4.2469883544
  C        30.1443283006       14.2120789828       -0.3879675435
  C        15.2454434489        0.5844413685        0.3836257625
  C        15.7538860387       14.3957384737        3.4739155030
  C        -0.2542447262        0.5861492349        3.4749892721
  C        31.2545457324       14.3976702584        0.3841373365
  C        15.2658919106       27.7746128664        1.5170512788
  C        15.7332120689       13.9628108852        2.3404308644
  C        30.7667034377       27.7767379075        2.3414111702
  C         0.2336980051       13.9645420516        1.5175076063
  C        16.2583057333       27.1943113513        2.1946489389
  C        14.7409422763       13.3820248375        1.6630017413
  C         0.7581467076       27.1958946422        1.6638587154
  C        30.2419439280       13.3842160582        2.1950327727
  C        14.1969916267        1.4199029079        0.0698579187
  C        16.8024820652       15.2313138065        3.7874946928
  C        29.6977115940        1.4212089063        3.7887658873
  C         1.3026318526       15.2326766879        0.0704422200
  C        19.4584521277       24.5135995778        2.1833748841
  C        11.5391133590       10.7018138577        1.6744031128
  C         3.9567033664       24.5131444948        1.6759818409
  C        27.0428648215       10.7019658907        2.1823716845
  C        19.4367025318       23.1545273795        2.4607099040
  C        11.5591514425        9.3427965107        1.3966902318
  C         3.9348153529       23.1541847320        1.3985582058
  C        27.0647081346        9.3429597933        2.4598187416
  C        18.9682514252       22.1247813344        1.6937201638
  C        12.0260551604        8.3123663553        2.1636778153
  C         3.4672113662       22.1240344079        2.1655481477
  C        27.5324695417        8.3128358711        1.6928181508
  C        18.9161168873       20.9730036450        2.3693114932
  C        12.0771903917        7.1606109518        1.4876404553
  C         3.4155740415       20.9723961511        1.4896900956
  C        27.5841964159        7.1611818289        2.3687034090
  C        19.2627108518       20.7116765337        3.5024565110
  C        11.7318888357        6.8999032771        0.3540166612
  C         3.7622019014       20.7114258491        0.3564808898
  C        27.2378453766        6.9001370984        3.5019800178
  C        19.7086993248       21.7458642492        0.3646719556
  C        11.2860712484        7.9347318910        3.4921528668
  C         4.2076372851       21.7459367648        3.4943490304
  C        26.7921190250        7.9345790251        0.3640889555
  C        19.7835148134       22.8903661157        3.5925760937
  C        11.2121788806        9.0791678921        0.2647631467
  C         4.2815059542       22.8904620060        0.2665814332
  C        26.7185081475        9.0792652046        3.5919420350
  C        19.4006164282       19.3711966737       -0.1053775674
  C        11.5964444604        5.5593238484        3.9611515723
  C         3.9003783722       19.3710933815        3.9641650004
  C        27.0999587667        5.5597188658       -0.1057237821
  H        12.8568108196       13.5079062928        4.0766274045
  H        14.3490536844       15.0383013509        4.6155832562
  H        16.4987425929       14.1705477609        1.8196572058
  H        15.0414628125       12.5541583789        1.2963024166
  H        12.8858175777        8.5107058973        2.5264097741
  H        12.3088987545        6.4067065240        2.0159377934
  H        10.9140630300        9.8161371642       -0.2608840662
  H         7.1077540480       15.2597277795        2.0669048728
  H         9.2142754208       14.7017707139        2.5835356819
  H         9.3685954403       12.3440906469       -0.2033714308
  H        30.5424476640       12.5563933515        2.5618303775
  H        28.3575208444       13.5101423245       -0.2184610270
  H        29.8501088088       15.0405308470       -0.7576573376
  H         0.9992773660       14.1725254292        2.0381153699
  H        22.6085674519       15.2575565298        1.7910597316
  H        24.8702964813       12.3428151566        4.0615725526
  H        24.7151179048       14.7001907222        1.2748046173
  H        26.4193708436        9.8158438278        4.1173952025
  H        28.3921442896        8.5119193874        1.3301645555
  H        27.8156904754        6.4074107706        1.8399495542
  H        22.8151035224       12.9559080781        0.6777257202
  H         6.2843296177        0.8877941843        2.5835288988
  H        18.6837320563       20.2194983013        1.8405986505
  H        20.0828418904       23.6268263544        4.1181938727
  H        25.9353121465        7.7319877524        0.7310778355
  H        18.1088967644       22.3244741052        1.3306300474
  H        21.6305945444       26.1554894085        4.0623409005
  H        23.6857600502       26.7688035825        0.6783045332
  H        15.9580166090       26.3662829065        2.5611873032
  H        14.5002626030       27.9823144981        2.0376881807
  H         7.3136823001       12.9578448613        3.1803121236
  H         4.5803477747       23.6272056777       -0.2588939324
  H        20.5652351249       21.5426959336        0.7319840853
  H         2.6075739780       22.3230456858        2.5283308553
  H         3.1841577033       20.2185598878        2.0183936790
  H         6.1297520947       26.1532708911       -0.2032913450
  H         0.4573313744       26.3681254928        1.2972027392
  H        10.4288174996        7.7322384326        3.1260018143
  H        18.1426146112       -0.3030288863       -0.2189420216
  H        16.6499861225        1.2273327406       -0.7580422870
  H        23.8919615006        1.4471745612        1.7917249697
  H        21.7853763359        0.8896490757        1.2754288843
  H         2.6425917696       -0.3022081154        4.0773950430
  H         1.1506728924        1.2288349867        4.6165930307
  H         8.3906532854        1.4456418165        2.0669186991
  H        30.0010623146       27.9847497633        1.8209380526
  H         5.0644483587       21.5434096886        3.1273295190
  H         8.1846866303       26.7668174314        3.1802787925
