       2
 i =        1, E =       -22.8645253455
  I         2.7500000000        4.0000000000        4.0000000000
  I         5.2500000000        4.0000000000        4.0000000000
       2
 i =        2, E =       -22.8671913400
  I         2.7311097226        4.0000000000        4.0000000001
  I         5.2688902774        4.0000000000        3.9999999999
       2
 i =        3, E =       -22.8698548183
  I         2.6922649927        4.0000000000        4.0000000001
  I         5.3077350073        4.0000000000        3.9999999999
       2
 i =        4, E =       -22.8701002096
  I         2.6789314139        4.0000000000        4.0000000001
  I         5.3210685861        4.0000000000        3.9999999999
       2
 i =        5, E =       -22.8701248550
  I         2.6736314461        4.0000000000        4.0000000001
  I         5.3263685539        4.0000000000        3.9999999999
       2
 i =        6, E =       -22.8701253241
  I         2.6728189984        4.0000000000        4.0000000001
  I         5.3271810016        4.0000000000        3.9999999999
       2
 i =        7, E =       -22.8701253241
  I         2.6728189984        4.0000000000        4.0000000001
  I         5.3271810016        4.0000000000        3.9999999999
