!PBE0 nososcf NoRI
%SCF Guess HCore
     DIISMaxIt -1
end
%TDDFT NROOTS 10
       DOSOC TRUE
end
%basis
        GTOName "../../../basis_orca"
end
* xyz 0 1
  H         5.0501127267        4.0000000087        4.4485405158
  H         2.9498873254        4.0000000491        4.4485406930
  Se        3.9999999459        3.9999999428        3.4021117088
*
