       2
 i =        1, E =       -12.0143763550
  I         3.2999982010        4.0000000002        4.0000000000
  H         4.7000000000        3.9999999998        4.0000000000
       2
 i =        2, E =       -12.0360139099
  I         3.1177245692        4.0000000003        4.0000000000
  H         4.8822738479        3.9999999997        4.0000000000
       2
 i =        3, E =       -12.0398361283
  I         3.1537693104        4.0000000003        4.0000000000
  H         4.8462317515        3.9999999997        4.0000000000
       2
 i =        4, E =       -12.0408132832
  I         3.1957492025        4.0000000003        4.0000000000
  H         4.8042509339        3.9999999997        4.0000000000
       2
 i =        5, E =       -12.0409968209
  I         3.1826092503        4.0000000003        4.0000000000
  H         4.8173911987        3.9999999997        4.0000000000
       2
 i =        6, E =       -12.0410005753
  I         3.1841833460        4.0000000003        4.0000000000
  H         4.8158152249        3.9999999997        4.0000000000
       2
 i =        7, E =       -12.0410005853
  I         3.1842678918        4.0000000003        4.0000000000
  H         4.8157276259        3.9999999997        4.0000000000
       2
 i =        8, E =       -12.0410005853
  I         3.1842678918        4.0000000003        4.0000000000
  H         4.8157276259        3.9999999997        4.0000000000
