     184
 i =       16, E =     -1101.0117121916
 Bi        28.1512358786        2.7680172066        1.6452879245
 Bi         2.8508130929       16.5804384838        2.2075657888
 Bi        12.6514145632        2.7667439380        2.2128720446
 Bi        18.3505625989       16.5708764459        1.6469280613
  O        26.5267928619        0.8625395856        1.7880138642
  O         4.4744852337       14.6748383837        2.0705060323
  O        11.0267103876        0.8617962398        2.0725773219
  O        19.9765247872       14.6728834750        1.7847950084
  O        26.4677462539        2.2443097687        3.9630936499
  O         4.5315066862       16.0578147578       -0.1056165270
  O        10.9683582151        2.2444328113       -0.1032116733
  O        20.0328208465       16.0553976993        3.9611575378
  O        15.1589253353        2.2991384239        2.1526824517
  O        15.8512827107       16.0717165156        1.7213949614
  O        30.6586845055        2.2992103729        1.7087667140
  O         0.3429817253       16.1094504975        2.1410498670
  O        13.9118955195        1.6599011435       -0.0402891836
  O        17.0977183840       15.4287040953        3.9133023961
  O        29.4127773226        1.6597427370        3.9008034263
  O         1.5887915269       15.4716820243       -0.0497668009
  O        18.0902749744       18.4105679500        0.1091219411
  O        12.9077454140        4.6024658127        3.7509426921
  O         2.5921389248       18.4148227029        3.7495128271
  O        28.4088564429        4.6034416286        0.1065461211
  O        19.4072062164       18.8150914445        1.8559837919
  O        11.5912604902        5.0042112628        2.0033944074
  O         3.9083885919       18.8185855583        2.0024974192
  O        27.0930152247        5.0071486506        1.8538149565
  N        20.5859189607       26.8298489463        1.7365609768
  N        10.4106828666       13.0165605242        2.1277593679
  N         5.0866721308       26.8309310727        2.1257245442
  N        25.9166475064       13.0199501968        1.7286647754
  N        19.0887528494       24.9973858307        1.8353347352
  N        11.9020861732       11.1789145703        2.0301521162
  N         3.5890755571       24.9987455478        2.0258457259
  N        27.4140356766       11.1874538377        1.8289685367
  N        20.7018181805       25.2868683505        3.5322062168
  N        10.2911789298       11.4735218926        0.3321502522
  N         5.2026260584       25.2886929925        0.3294771134
  N        25.8002773342       11.4777946900        3.5250352749
  C        21.2012198382       26.3158040469        2.7939021920
  C         9.7947440081       12.5041381295        1.0700537351
  C         5.7020424155       26.3171900331        1.0682990204
  C        25.3014396931       12.5066710193        2.7863948668
  C        22.4529966799       26.9292267655        3.2232731650
  C         8.5448754121       13.1197299630        0.6391068675
  C         6.9544717997       26.9294318165        0.6394545816
  C        24.0490775742       13.1191083565        3.2157710815
  C        23.0942260415       26.4573072168        4.3209111301
  C         7.9042142195       12.6471619023       -0.4585969953
  C         7.5952839278       26.4569376856       -0.4581731385
  C        23.4085446045       12.6462385306        4.3134154793
  C        24.1446801662       27.1742578738        1.0212061471
  C         6.8547357190       13.3643387360        2.8398913654
  C         8.6461625682       27.1731390077        2.8415085515
  C        22.3573826267       13.3617648246        1.0140854644
  C        24.7045318815        0.6404563497        0.3006895238
  C         6.2948223571       14.4538841141        3.5599241507
  C         9.2061027607        0.6394364446        3.5616167733
  C        21.7965437203       14.4510448417        0.2943323133
  C        24.0670008282        1.1131213104        3.1162592840
  C         6.9318991340       14.9275262306        0.7442208776
  C         8.5688322178        1.1127948884        0.7458954362
  C        22.4337622351       14.9251530278        3.1102074621
  C        23.0200445160        0.3958033245        2.5014570361
  C         7.9783269803       14.2102297133        1.3600137429
  C         7.5221405107        0.3956181110        1.3613148871
  C        23.4809226573       14.2086791149        2.4946013009
  C        25.9509358649        1.2721519461        0.7350768147
  C         5.0489980952       15.0850479577        3.1240176988
  C        10.4516745706        1.2716144040        3.1259230866
  C        20.5510125281       15.0826039398        0.7308140419
  C        19.4398841149       26.2163065977        1.3793744706
  C        11.5538024038       12.3983625804        2.4869866113
  C         3.9403844573       26.2174638132        2.4823684613
  C        27.0628228860       12.4060210045        1.3718519382
  C        18.3404831583       26.9985480726        0.7610211452
  C        12.6564953734       13.1736809466        3.1077253446
  C         2.8408325515       26.9989987267        3.1011576461
  C        28.1623263977       13.1865078785        0.7514509582
  C        18.5015087550        0.2314655525       -0.2743669382
  C        12.5001616142       14.0303872895        4.1431972206
  C         3.0015014267        0.2317642677        4.1366868269
  C        28.0011035225       14.0425464738       -0.2839534333
  C        17.3879141906        0.8041586552       -0.9170197482
  C        13.6176743400       14.5929984531        4.7880663422
  C         1.8875867517        0.8037645913        4.7795055611
  C        29.1147784264       14.6135866754       -0.9281295835
  C        16.1452001440        0.7884258974       -0.2397884178
  C        14.8610575715       14.5675521721        4.1123337039
  C         0.6449694924        0.7878381930        4.1020371489
  C        30.3577075181       14.5979182646       -0.2513558250
  C        15.9880875861       27.6032465475        0.8392334593
  C        15.0137711913       13.7598664501        3.0323864741
  C        31.4888144620       27.6027734339        3.0228827109
  C        -0.4853404319       13.7897297398        0.8277405367
  C        17.0882669678       26.9534429442        1.4215838801
  C        13.9090823334       13.1191823475        2.4484570053
  C         1.5886065308       26.9532558265        2.4406445134
  C        29.4151540043       13.1403197722        1.4108101153
  C        15.0355646762        1.6202726521       -0.7024330606
  C        15.9749557253       15.3927428891        4.5760698570
  C        30.5357861022        1.6199176330        4.5640608667
  C         0.4662662522       15.4306311186       -0.7139118588
  C        19.7775584415       24.5424635900        2.8708788308
  C        11.2139347968       10.7272364572        0.9931186588
  C         4.2776372598       24.5445844395        0.9898488452
  C        26.7255300017       10.7335774570        2.8651359197
  C        19.5151998294       23.1900246537        3.3408969056
  C        11.4760787221        9.3758991826        0.5216466481
  C         4.0150183295       23.1928860271        0.5185938927
  C        26.9876936851        9.3818497611        3.3366959750
  C        18.6406949031       22.3200704454        2.6311608805
  C        12.3513714893        8.5067203084        1.2313197930
  C         3.1403366633       22.3228049506        1.2277692926
  C        27.8621015797        8.5111842918        2.6277830882
  C        18.3097195634       21.0864353000        3.2269531721
  C        12.6843254377        7.2745804909        0.6338506990
  C         2.8100225910       21.0893640600        0.6314534229
  C        28.1919291057        7.2777090314        3.2245005328
  C        18.9572911774       20.6283499550        4.3251268047
  C        12.0368728768        6.8176250984       -0.4647132313
  C         3.4584045144       20.6322433662       -0.4666444703
  C        27.5434221049        6.8210488982        4.3227250290
  C        19.8057376834       21.5068932819        1.1391290043
  C        11.1874298547        7.6952663375        2.7213389601
  C         4.3062243222       21.5112089258        2.7193052406
  C        26.6960355274        7.7006293685        1.1366176008
  C        20.1710401071       22.7201704416        4.4320869386
  C        10.8200681502        8.9071172020       -0.5697259013
  C         4.6714816984       22.7239703822       -0.5725994344
  C        26.3311877688        8.9133732152        4.4280761790
  C        18.8046251475       19.2253380908        0.8171000442
  C        12.1922862550        5.4157666820        3.0430072363
  C         3.3060196256       19.2295001526        3.0417399640
  C        27.6952854446        5.4182139364        0.8146962305
  H        11.5159472579       14.2028742276        4.5620588176
  H        13.4617187427       15.3553543691        5.5474531638
  H        15.9893702871       13.7166872622        2.5577707176
  H        14.0771673356       12.3466518909        1.7011699960
  H        13.0339269002        8.9508959421        1.9526622530
  H        13.3532462798        6.5863436899        1.1407017053
  H        10.0881371994        9.5562127143       -1.0373431829
  H         6.5162387643       15.8077524915        1.2242874181
  H         8.6162161675       14.7236138715        2.0765762101
  H         8.3246017710       11.7775995044       -0.9508371128
  H        29.5885814835       12.3691068459        2.1582674149
  H        27.0160466750       14.2081797061       -0.7034536478
  H        28.9535154084       15.3742519958       -1.6881409871
  H         0.4901265342       13.7528642663        1.3032149352
  H        22.0182172108       15.8055007621        2.6302213765
  H        23.8305753898       11.7781298453        4.8068634110
  H        24.1179685157       14.7225393453        1.7776350228
  H        25.6000515717        9.5632397628        4.8958320689
  H        28.5453701580        8.9535536984        1.9059702811
  H        28.8590640008        6.5883867195        2.7167093870
  H        21.7229917510       12.8478366935        1.7327600728
  H         6.8846216415        0.9089926377        2.0781669780
  H        17.6424071700       20.3980197969        2.7182062047
  H        20.9013213863       23.3697925733        4.9015595595
  H        26.0145385782        7.2611328195        1.8613618669
  H        17.9583238805       22.7631118577        1.9089465997
  H        22.6729854953       25.5891701925        4.8150056679
  H        24.7798354710       26.6612854241        1.7398905740
  H        16.9149854667       26.1826153840        2.1694542638
  H        15.0128196497       27.5662634639        1.3150560477
  H         6.2196646689       12.8512074589        2.1212480199
  H         5.4026493645       23.3736092258       -1.0406270669
  H        20.4864265051       21.0667102977        1.8641934973
  H         2.4575394736       22.7655888202        1.9497603267
  H         2.1426887738       20.4003551256        1.1394019106
  H         7.1733428813       25.5891016203       -0.9521979686
  H         1.4156886213       26.1822209234        1.6929036741
  H        10.5063290030        7.2539125695        1.9973234933
  H        19.4862214364        0.3951575953       -0.6955363156
  H        17.5491298381        1.5649052002       -1.6769686209
  H        24.4831836715        1.9922871328        2.6347631947
  H        22.3822207663        0.9089925280        1.7847351886
  H         3.9861873105        0.3959178105        4.5577532743
  H         2.0485292901        1.5645624661        5.5394495588
  H         8.9846303186        1.9927146368        1.2263594668
  H        30.5137390679       27.5660032095        2.5466598662
  H         4.9872595328       21.0713632812        1.9943431715
  H         9.2811640543       26.6598113839        2.1229270735
