       2
 i =        1, E =     -3133.7365534457
 Br         3.4957805776        3.7500000000        4.0543028972
 Br         4.5042194256        4.2499999986        3.9456970981
       2
 i =        1, E =     -5147.4854148066
 Br         3.0000000000        3.9999999983        4.0000000098
 Br         5.0000000000        4.0000000017        3.9999999902
       2
 i =        2, E =     -5147.4981333677
 Br         2.9763379032        3.9999999969        4.0000000184
 Br         5.0236620968        4.0000000031        3.9999999816
       2
 i =        3, E =     -5147.5156493579
 Br         2.9130029963        3.9999999893        4.0000000630
 Br         5.0869970037        4.0000000107        3.9999999370
       2
 i =        4, E =     -5147.5174958520
 Br         2.8893089273        3.9999999838        4.0000000951
 Br         5.1106910727        4.0000000162        3.9999999049
       2
 i =        5, E =     -5147.5176698649
 Br         2.8801584675        3.9999999799        4.0000001183
 Br         5.1198415325        4.0000000202        3.9999998817
       2
 i =        6, E =     -5147.5176722405
 Br         2.8790054817        3.9999999776        4.0000001317
 Br         5.1209945183        4.0000000224        3.9999998683
       2
 i =        7, E =     -5147.5176721939
 Br         2.8790054817        3.9999999776        4.0000001317
 Br         5.1209945183        4.0000000224        3.9999998683
